wipe;
model basic -ndm 3 -ndf 6;

node 1 253.576878282944 0 2527.31057980619
node 2 253.576878282944 15.875 2527.31057980619
node 3 253.576878282944 31.75 2527.31057980619
node 4 253.576878282944 47.625 2527.31057980619
node 5 253.576878282944 63.5 2527.31057980619
node 6 253.576878282944 79.375 2527.31057980619
node 7 253.576878282944 95.25 2527.31057980619
node 8 253.576878282944 111.125 2527.31057980619
node 9 253.576878282944 127 2527.31057980619
node 10 253.576878282944 142.875 2527.31057980619
node 11 253.576878282944 158.75 2527.31057980619
node 12 253.576878282944 174.625 2527.31057980619
node 13 253.576878282944 190.5 2527.31057980619
node 14 253.576878282944 206.375 2527.31057980619
node 15 253.576878282944 222.25 2527.31057980619
node 16 253.576878282944 238.125 2527.31057980619
node 17 253.576878282944 254 2527.31057980619
node 18 237.776337338203 0 2528.84606360332
node 19 237.776337338203 15.875 2528.84606360332
node 20 237.776337338203 31.75 2528.84606360332
# ... 269 like lines cut
#fix hinged
fix 1 1 1 1 0 0 0

fix 2 1 1 1 0 0 0
fix 3 1 1 1 0 0 0
fix 4 1 1 1 0 0 0
fix 5 1 1 1 0 0 0
fix 6 1 1 1 0 0 0
fix 7 1 1 1 0 0 0
fix 8 1 1 1 0 0 0
fix 9 1 1 1 0 0 0
fix 10 1 1 1 0 0 0
fix 11 1 1 1 0 0 0
fix 12 1 1 1 0 0 0
fix 13 1 1 1 0 0 0
fix 14 1 1 1 0 0 0
fix 15 1 1 1 0 0 0
fix 16 1 1 1 0 0 0

fix 17 1 1 1 1 0 1

#fix clamp Y
fix 273 1 0 0 0 1 1
fix 274 1 0 0 0 1 1
fix 275 1 0 0 0 1 1
fix 276 1 0 0 0 1 1
fix 277 1 0 0 0 1 1
fix 278 1 0 0 0 1 1
fix 279 1 0 0 0 1 1
fix 280 1 0 0 0 1 1
fix 281 1 0 0 0 1 1
fix 282 1 0 0 0 1 1
fix 283 1 0 0 0 1 1
fix 284 1 0 0 0 1 1
fix 285 1 0 0 0 1 1
fix 286 1 0 0 0 1 1
fix 287 1 0 0 0 1 1
fix 288 1 0 0 0 1 1

#fix clap X
fix 34  0 1 0 1 0 1
fix 51  0 1 0 1 0 1
fix 68  0 1 0 1 0 1
fix 85  0 1 0 1 0 1
fix 102 0 1 0 1 0 1
fix 119 0 1 0 1 0 1
fix 136 0 1 0 1 0 1
fix 153 0 1 0 1 0 1
fix 170 0 1 0 1 0 1
fix 187 0 1 0 1 0 1
fix 204 0 1 0 1 0 1
fix 221 0 1 0 1 0 1
fix 238 0 1 0 1 0 1
fix 255 0 1 0 1 0 1
fix 272 0 1 0 1 0 1

fix 289 1 1 0 1 1 1

#material
set section 701
set th 6.35
set nl 3


set Ex 1100
set Ey 3300
set Ez 3102.75

set vxy 0.25    
set vyz 0.25
set vzx 0.25

set Gxy 660    
set Gyz 660
set Gzx 660


set isotropicLayerMatTag 2
set orthotropicLayerMatTag0 3
set orthotropicLayerMatTag90 4
nDMaterial ElasticIsotropic $isotropicLayerMatTag 3102.75 0.3
nDMaterial ElasticOrthotropic $orthotropicLayerMatTag90 $Ex $Ey $Ez $vxy $vyz $vzx $Gxy $Gyz $Gzx
nDMaterial ElasticOrthotropic $orthotropicLayerMatTag0 $Ey $Ex $Ez $vxy $vyz $vzx $Gxy $Gyz $Gzx

nDMaterial PlateFiber 50100 $orthotropicLayerMatTag0
nDMaterial PlateFiber 50190 $orthotropicLayerMatTag90

section PlateFiber $section $isotropicLayerMatTag $th
#section LayeredShell $section $nl 50100 [expr $th/$nl] 50100 [expr $th/$nl] 50100 [expr $th/$nl]

#element
element ShellNLDKGQ 1	1	2	19	18 $section
element ShellNLDKGQ 2	2	3	20	19 $section
element ShellNLDKGQ 3	3	4	21	20 $section
element ShellNLDKGQ 4	4	5	22	21 $section
element ShellNLDKGQ 5	5	6	23	22 $section
element ShellNLDKGQ 6	6	7	24	23 $section
element ShellNLDKGQ 7	7	8	25	24 $section
element ShellNLDKGQ 8	8	9	26	25 $section
element ShellNLDKGQ 9	9	10	27	26 $section
element ShellNLDKGQ 10	10	11	28	27 $section
element ShellNLDKGQ 11	11	12	29	28 $section
element ShellNLDKGQ 12	12	13	30	29 $section
element ShellNLDKGQ 13	13	14	31	30 $section
element ShellNLDKGQ 14	14	15	32	31 $section
element ShellNLDKGQ 15	15	16	33	32 $section
element ShellNLDKGQ 16	16	17	34	33 $section
element ShellNLDKGQ 17	18	19	36	35 $section
element ShellNLDKGQ 18	19	20	37	36 $section
element ShellNLDKGQ 19	20	21	38	37 $section
element ShellNLDKGQ 20	21	22	39	38 $section
# ... 236 like lines cut


set targetNode 289
pattern Plain 1 Linear { 
    load $targetNode 0 0 -1 0 0 0
}

numberer Plain

system SparseSPD

constraints Transformation

test NormUnbalance 1e-5 20 2

algorithm Newton;

#define EQPath_Method_MRD 1 
#define EQPath_Method_NP 2
#define EQPath_Method_UNP 3
#define EQPath_Method_CYL 4
#define EQPath_Method_MNP 5
#define EQPath_Method_GDC 6
#define EQPath_Method_MUNP 7
#define EQPath_Method_GMRD 9
#define EQPath_Method_PEP 10

set arc_length 5;
set type 1;

recorder Node -file isotropic-node-$targetNode-method-$type-mrw.txt  -time -node $targetNode -dof 3 disp

integrator EQPath $arc_length $type

analysis Static;

puts "start"

set i 0;
set ret 0;
set steps  1600;
while {$i<$steps && $ret==0} {
	incr i
	set ret [analyze 1];
    
    if {[nodeDisp $targetNode 3] < -35  || [nodeDisp $targetNode 3] > 0} {
      puts "reach targe, exit"
      break
    }
}

puts "done"
remove recorders